-------------------------------------------------------
          Amber 24 PMEMD                              2024
          -------------------------------------------------------

  [-O]verwriting output

File Assignments:

 Here is the input file:

Equilibration at 300 K and 1 atm, decreasing restraints
&cntrl
  imin=0, irest=1, ntx=5,
  nstlim=100000, dt=0.002,
  ntf=2, ntc=2,
  ntb=2, ntp=1, pres0=1.0, taup=2.0,
  cut=10.0,
  ntt=3, gamma_ln=2.0, temp0=300.0,
  ntr=1,
  restraint_wt=2.0,
  restraintmask=':1-9999&@CA,C,N,O',
  ntpr=1000, ntwx=1000, ntwr=5000,
/

Note: ig = -1. Setting random seed to   444680 based on wallclock time in
      microseconds.

--------------------------------------------------------------------------------
   1.  RESOURCE   USE:
--------------------------------------------------------------------------------

 getting box info from netcdf restart file
 NATOM  =   34285 NTYPES =      23 NBONH =   31908 MBONA  =    2419
 NTHETH =    5392 MTHETA =    3279 NPHIH =   10774 MPHIA  =   10346
 NHPARM =       0 NPARM  =       0 NNB   =   65583 NRES   =   10161
 NBONA  =    2419 NTHETA =    3279 NPHIA =   10346 NUMBND =      72
 NUMANG =     160 NPTRA  =     183 NATYP =      41 NPHB   =       0
 IFBOX  =       1 NMXRS  =      27 IFCAP =       0 NEXTRA =       0
 NCOPY  =       0

     BOX TYPE: RECTILINEAR

--------------------------------------------------------------------------------
   2.  CONTROL  DATA  FOR  THE  RUN
--------------------------------------------------------------------------------

default_name

General flags:
     imin    =       0, nmropt  =       0

Nature and format of input:
     ntx     =       5, irest   =       1, ntrx    =       1

Nature and format of output:
     ntxo    =       2, ntpr    =    1000, ntrx    =       1, ntwr    =    5000
     iwrap   =       0, ntwx    =    1000, ntwv    =       0, ntwe    =       0
     ioutfm  =       1, ntwprt  =       0, idecomp =       0, rbornstat=      0

Potential function:
     ntf     =       2, ntb     =       2, igb     =       0, nsnb    =      25
     ipol    =       0, gbsa    =       0, iesp    =       0
     dielc   =   1.00000, cut     =  10.00000, intdiel =   1.00000

Frozen or restrained atoms:
     ibelly  =       0, ntr     =       1
     restraint_wt =   2.00000

Molecular dynamics:
     nstlim  =    100000, nscm    =         0, nrespa  =         1
     t       =   0.00000, dt      =   0.00200, vlimit  =  20.00000

Langevin dynamics temperature regulation:
     ig      =  444680
     temp0   = 300.00000, tempi   =   0.00000, gamma_ln=   2.00000

Pressure regulation:
     ntp     =       1
     pres0   =   1.00000, comp    =  44.60000, taup    =   2.00000

SHAKE:
     ntc     =       2, jfastw  =       0
     tol     =   0.00001

Ewald parameters:
     verbose =       0, ew_type =       0, nbflag  =       1, use_pme =       1
     vdwmeth =       1, eedmeth =       1, netfrc  =       1
     Box X =   82.086   Box Y =   72.959   Box Z =   72.502
     Alpha =   90.000   Beta  =   90.000   Gamma =   90.000
     NFFT1 =   90       NFFT2 =   75       NFFT3 =   75
     Cutoff=   10.000   Tol   =0.100E-04
     Ewald Coefficient =  0.27511
     Interpolation order =    4

    LOADING THE CONSTRAINED ATOMS AS GROUPS

   5.  REFERENCE ATOM COORDINATES

  default_name
     Mask :1-9999&@CA,C,N,O; matches 10884 atoms

--------------------------------------------------------------------------------
   3.  ATOMIC COORDINATES AND VELOCITIES
--------------------------------------------------------------------------------

default_name
 begin time read from input coords =    50.000 ps

 Number of triangulated 3-point waters found:     9849

     Sum of charges from parm topology file =  -0.00000014
     Forcing neutrality...

--------------------------------------------------------------------------------
   4.  RESULTS
 NSTEP =     1000   TIME(PS) =      52.000  TEMP(K) =   298.85  PRESS =  -652.7
 Etot   =    -71848.1878  EKtot   =     21066.6812  EPtot      =    -92914.8691
 BOND   =      1118.7978  ANGLE   =      2434.3386  DIHED      =      3862.1315
 1-4 NB =      1085.8144  1-4 EEL =     13049.7109  VDWAALS    =     12428.3015
 EELEC  =   -132776.8477  EHBOND  =         0.0000  RESTRAINT  =      5882.8839
 EAMBER (non-restraint)  =    -98797.7529
 EKCMT  =      8810.6580  VIRIAL  =     14629.5285  VOLUME     =    412880.6593
                                                    Density    =         0.8495
 Ewald error estimate:   0.1536E-03
 ------------------------------------------------------------------------------

      A V E R A G E S   O V E R     100 S T E P S

 NSTEP =   100000   TIME(PS) =     250.000  TEMP(K) =   300.04  PRESS =    -2.5
 Etot   =    -72575.8376  EKtot   =     21150.6938  EPtot      =    -93726.5315
 BOND   =      1071.5253  ANGLE   =      2530.2503  DIHED      =      3851.0167
 1-4 NB =      1071.0567  1-4 EEL =     13015.1539  VDWAALS    =     13302.9941
 EELEC  =   -134974.5366  EHBOND  =         0.0000  RESTRAINT  =      6406.0082
 EAMBER (non-restraint)  =   -100132.5396
 EKCMT  =      8850.7072  VIRIAL  =      8874.3211  VOLUME     =    398053.0672
                                                    Density    =         0.8811
 Ewald error estimate:   0.5093E-04
 ------------------------------------------------------------------------------

      R M S  F L U C T U A T I O N S

 NSTEP =   100000   TIME(PS) =     250.000  TEMP(K) =     1.62  PRESS =   125.8
 Etot   =       241.9993  EKtot   =       113.9089  EPtot      =       214.8645
 BOND   =        23.8817  ANGLE   =        40.9336  DIHED      =        23.6596
 1-4 NB =        14.3788  1-4 EEL =        38.4181  VDWAALS    =       179.6125
 EELEC  =       368.5174  EHBOND  =         0.0000  RESTRAINT  =        98.1881
 EAMBER (non-restraint)  =       116.6763
 EKCMT  =        78.4863  VIRIAL  =      1095.6915  VOLUME     =      1866.3928
                                                    Density    =         0.0040
 Ewald error estimate:   0.3875E-04
 ------------------------------------------------------------------------------
