-------------------------------------------------------
          Amber 24 PMEMD                              2024
          -------------------------------------------------------

  [-O]verwriting output

File Assignments:

 Here is the input file:

Heating from 0 K to 300 K with restraints
&cntrl
  imin=0, irest=0, ntx=1,
  nstlim=25000, dt=0.002,
  ntf=2, ntc=2,
  ntb=1,
  cut=10.0,
  ntt=3, temp0=300.0, tempi=0.0, gamma_ln=2.0,
  ntr=1,
  restraint_wt=10.0,
  restraintmask=':1-9999&@CA,C,N,O',
  ntpr=500, ntwx=500, ntwr=5000,
/

Note: ig = -1. Setting random seed to   903377 based on wallclock time in
      microseconds.

--------------------------------------------------------------------------------
   1.  RESOURCE   USE:
--------------------------------------------------------------------------------

 getting box info from netcdf restart file
 NATOM  =   34285 NTYPES =      23 NBONH =   31908 MBONA  =    2419
 NTHETH =    5392 MTHETA =    3279 NPHIH =   10774 MPHIA  =   10346
 NHPARM =       0 NPARM  =       0 NNB   =   65583 NRES   =   10161
 NBONA  =    2419 NTHETA =    3279 NPHIA =   10346 NUMBND =      72
 NUMANG =     160 NPTRA  =     183 NATYP =      41 NPHB   =       0
 IFBOX  =       1 NMXRS  =      27 IFCAP =       0 NEXTRA =       0
 NCOPY  =       0

     BOX TYPE: RECTILINEAR

--------------------------------------------------------------------------------
   2.  CONTROL  DATA  FOR  THE  RUN
--------------------------------------------------------------------------------

default_name

General flags:
     imin    =       0, nmropt  =       0

Nature and format of input:
     ntx     =       1, irest   =       0, ntrx    =       1

Nature and format of output:
     ntxo    =       2, ntpr    =     500, ntrx    =       1, ntwr    =    5000
     iwrap   =       0, ntwx    =     500, ntwv    =       0, ntwe    =       0
     ioutfm  =       1, ntwprt  =       0, idecomp =       0, rbornstat=      0

Potential function:
     ntf     =       2, ntb     =       1, igb     =       0, nsnb    =      25
     ipol    =       0, gbsa    =       0, iesp    =       0
     dielc   =   1.00000, cut     =  10.00000, intdiel =   1.00000

Frozen or restrained atoms:
     ibelly  =       0, ntr     =       1
     restraint_wt =  10.00000

Molecular dynamics:
     nstlim  =     25000, nscm    =         0, nrespa  =         1
     t       =   0.00000, dt      =   0.00200, vlimit  =  20.00000

Langevin dynamics temperature regulation:
     ig      =  903377
     temp0   = 300.00000, tempi   =   0.00000, gamma_ln=   2.00000

SHAKE:
     ntc     =       2, jfastw  =       0
     tol     =   0.00001

Ewald parameters:
     verbose =       0, ew_type =       0, nbflag  =       1, use_pme =       1
     vdwmeth =       1, eedmeth =       1, netfrc  =       1
     Box X =   82.086   Box Y =   72.959   Box Z =   72.502
     Alpha =   90.000   Beta  =   90.000   Gamma =   90.000
     NFFT1 =   90       NFFT2 =   75       NFFT3 =   75
     Cutoff=   10.000   Tol   =0.100E-04
     Ewald Coefficient =  0.27511
     Interpolation order =    4

    LOADING THE CONSTRAINED ATOMS AS GROUPS

   5.  REFERENCE ATOM COORDINATES

  default_name
     Mask :1-9999&@CA,C,N,O; matches 10884 atoms

--------------------------------------------------------------------------------
   3.  ATOMIC COORDINATES AND VELOCITIES
--------------------------------------------------------------------------------

default_name
 begin time read from input coords =     0.000 ps

 Number of triangulated 3-point waters found:     9849

     Sum of charges from parm topology file =  -0.00000014
     Forcing neutrality...

--------------------------------------------------------------------------------
   4.  RESULTS
 NSTEP =        0   TIME(PS) =       0.000  TEMP(K) =     0.00  PRESS =     0.0
 Etot   =   -121127.2446  EKtot   =         0.0000  EPtot      =   -121127.2446
 BOND   =      3629.0569  ANGLE   =      1337.1563  DIHED      =      3398.8491
 1-4 NB =       982.0900  1-4 EEL =     13133.4229  VDWAALS    =      9821.6739
 EELEC  =   -153429.4936  EHBOND  =         0.0000  RESTRAINT  =         0.0000
 Ewald error estimate:   0.7824E-04
 ------------------------------------------------------------------------------

      A V E R A G E S   O V E R      50 S T E P S

 NSTEP =    25000   TIME(PS) =      50.000  TEMP(K) =   298.66  PRESS =     0.0
 Etot   =    -67247.1208  EKtot   =     21053.3534  EPtot      =    -88300.4742
 BOND   =      1939.7729  ANGLE   =      2869.2052  DIHED      =      3843.0544
 1-4 NB =      1079.9196  1-4 EEL =     13017.0801  VDWAALS    =     11000.3810
 EELEC  =   -129449.3085  EHBOND  =         0.0000  RESTRAINT  =      7399.4210
 EAMBER (non-restraint)  =    -95699.8952
 Ewald error estimate:   0.8781E-04
 ------------------------------------------------------------------------------

      R M S  F L U C T U A T I O N S

 NSTEP =    25000   TIME(PS) =      50.000  TEMP(K) =     6.23  PRESS =     0.0
 Etot   =       881.1145  EKtot   =       438.8855  EPtot      =       463.9304
 BOND   =        40.4706  ANGLE   =        51.7113  DIHED      =        21.6132
 1-4 NB =        12.1501  1-4 EEL =        30.1010  VDWAALS    =       120.4369
 EELEC  =       320.5093  EHBOND  =         0.0000  RESTRAINT  =       164.2473
 EAMBER (non-restraint)  =       299.6831
 Ewald error estimate:   0.5285E-04
 ------------------------------------------------------------------------------
