-------------------------------------------------------
          Amber 24 PMEMD                              2024
          -------------------------------------------------------

  [-O]verwriting output

File Assignments:

 Here is the input file:

Production MD (no restraints)
&cntrl
  imin=0, irest=1, ntx=5,
  nstlim=500000, dt=0.002,
  ntf=2, ntc=2,
  ntb=2, ntp=1, pres0=1.0, taup=2.0,
  cut=10.0,
  ntt=3, gamma_ln=2.0, temp0=300.0,
  ntpr=5000, ntwx=5000, ntwr=50000,
/

Note: ig = -1. Setting random seed to   808858 based on wallclock time in
      microseconds.

--------------------------------------------------------------------------------
   1.  RESOURCE   USE:
--------------------------------------------------------------------------------

 getting box info from netcdf restart file
 NATOM  =   34285 NTYPES =      23 NBONH =   31908 MBONA  =    2419
 NTHETH =    5392 MTHETA =    3279 NPHIH =   10774 MPHIA  =   10346
 NHPARM =       0 NPARM  =       0 NNB   =   65583 NRES   =   10161
 NBONA  =    2419 NTHETA =    3279 NPHIA =   10346 NUMBND =      72
 NUMANG =     160 NPTRA  =     183 NATYP =      41 NPHB   =       0
 IFBOX  =       1 NMXRS  =      27 IFCAP =       0 NEXTRA =       0
 NCOPY  =       0

     BOX TYPE: RECTILINEAR

--------------------------------------------------------------------------------
   2.  CONTROL  DATA  FOR  THE  RUN
--------------------------------------------------------------------------------

default_name

General flags:
     imin    =       0, nmropt  =       0

Nature and format of input:
     ntx     =       5, irest   =       1, ntrx    =       1

Nature and format of output:
     ntxo    =       2, ntpr    =    5000, ntrx    =       1, ntwr    =   50000
     iwrap   =       0, ntwx    =    5000, ntwv    =       0, ntwe    =       0
     ioutfm  =       1, ntwprt  =       0, idecomp =       0, rbornstat=      0

Potential function:
     ntf     =       2, ntb     =       2, igb     =       0, nsnb    =      25
     ipol    =       0, gbsa    =       0, iesp    =       0
     dielc   =   1.00000, cut     =  10.00000, intdiel =   1.00000

Frozen or restrained atoms:
     ibelly  =       0, ntr     =       0

Molecular dynamics:
     nstlim  =    500000, nscm    =      1000, nrespa  =         1
     t       =   0.00000, dt      =   0.00200, vlimit  =  20.00000

Langevin dynamics temperature regulation:
     ig      =  808858
     temp0   = 300.00000, tempi   =   0.00000, gamma_ln=   2.00000

Pressure regulation:
     ntp     =       1
     pres0   =   1.00000, comp    =  44.60000, taup    =   2.00000

SHAKE:
     ntc     =       2, jfastw  =       0
     tol     =   0.00001

Ewald parameters:
     verbose =       0, ew_type =       0, nbflag  =       1, use_pme =       1
     vdwmeth =       1, eedmeth =       1, netfrc  =       1
     Box X =   79.719   Box Y =   70.855   Box Z =   70.411
     Alpha =   90.000   Beta  =   90.000   Gamma =   90.000
     NFFT1 =   80       NFFT2 =   72       NFFT3 =   72
     Cutoff=   10.000   Tol   =0.100E-04
     Ewald Coefficient =  0.27511
     Interpolation order =    4

--------------------------------------------------------------------------------
   3.  ATOMIC COORDINATES AND VELOCITIES
--------------------------------------------------------------------------------

default_name
 begin time read from input coords =   250.000 ps

 Number of triangulated 3-point waters found:     9849

     Sum of charges from parm topology file =  -0.00000014
     Forcing neutrality...

--------------------------------------------------------------------------------
   4.  RESULTS
 NSTEP =     5000   TIME(PS) =     260.000  TEMP(K) =   297.90  PRESS =  -439.6
 Etot   =    -80958.4083  EKtot   =     20999.9536  EPtot      =   -101958.3619
 BOND   =       863.6968  ANGLE   =      2348.0715  DIHED      =      3786.6490
 1-4 NB =      1105.3828  1-4 EEL =     13158.2243  VDWAALS    =     11038.0704
 EELEC  =   -134258.4566  EHBOND  =         0.0000  RESTRAINT  =         0.0000
 EKCMT  =      8759.1174  VIRIAL  =     12106.4924  VOLUME     =    352690.9019
                                                    Density    =         0.9944
 Ewald error estimate:   0.1656E-03
 ------------------------------------------------------------------------------

      A V E R A G E S   O V E R     100 S T E P S

 NSTEP =   500000   TIME(PS) =    1250.000  TEMP(K) =   300.02  PRESS =     3.8
 Etot   =    -81675.5509  EKtot   =     21149.3940  EPtot      =   -102824.9450
 BOND   =       903.6465  ANGLE   =      2364.1267  DIHED      =      3766.3727
 1-4 NB =      1093.1241  1-4 EEL =     13060.0217  VDWAALS    =     11196.9728
 EELEC  =   -135209.2094  EHBOND  =         0.0000  RESTRAINT  =         0.0000
 EKCMT  =      8848.1851  VIRIAL  =      8821.6198  VOLUME     =    341055.1229
                                                    Density    =         1.0284
 Ewald error estimate:   0.6762E-04
 ------------------------------------------------------------------------------

      R M S  F L U C T U A T I O N S

 NSTEP =   500000   TIME(PS) =    1250.000  TEMP(K) =     1.55  PRESS =   153.3
 Etot   =       208.2193  EKtot   =       109.2058  EPtot      =       181.2050
 BOND   =        24.2533  ANGLE   =        34.2335  DIHED      =        25.2595
 1-4 NB =        13.6966  1-4 EEL =        38.4097  VDWAALS    =       140.4523
 EELEC  =       250.6412  EHBOND  =         0.0000  RESTRAINT  =         0.0000
 EKCMT  =        73.3564  VIRIAL  =      1131.1284  VOLUME     =      1232.6332
                                                    Density    =         0.0036
 Ewald error estimate:   0.4787E-04
 ------------------------------------------------------------------------------
